# Shahrokh,K; Orendt,A; Yost, G.S; and Cheatham III, T.E. Jour Comp Chem (2011)
# Ferric penta-coordinate high-spin (IC6) heme coordinates and atomic charges
@<TRIPOS>MOLECULE
HEM-IC6
   73    80     1     0     1
SMALL
USER_CHARGES
@<TRIPOS>ATOM
  1 NC          2.946000   -0.972000   -0.732000 nc     1 HEM        0.0066 ****
  2 C1C         4.282000   -0.756000   -0.518000 cc     1 HEM       -0.0192 ****
  3 C4C         2.796000   -2.285000   -1.056000 cc     1 HEM       -0.0193 ****
  4 C2C         5.025000   -1.989000   -0.700000 cc     1 HEM        0.0114 ****
  5 C3C         4.097000   -2.957000   -1.046000 cc     1 HEM       -0.0357 ****
  6 CHD         1.576000   -2.892000   -1.394000 cg     1 HEM       -0.1482 ****
  7 HHD         1.613000   -3.945000   -1.655000 ha     1 HEM        0.1094 ****
  8 C1D         0.319000   -2.288000   -1.482000 cd     1 HEM        0.0095 ****
  9 ND          0.056000   -0.976000   -1.204000 nd     1 HEM       -0.2714 ****
 10 C4D        -1.273000   -0.774000   -1.461000 cd     1 HEM        0.0948 ****
 11 C3D        -1.900000   -2.026000   -1.899000 cd     1 HEM       -0.0248 ****
 12 C2D        -0.899000   -2.965000   -1.912000 cd     1 HEM        0.0617 ****
 13 CHA        -1.926000    0.458000   -1.348000 cg     1 HEM       -0.1952 ****
 14 HHA        -2.989000    0.461000   -1.566000 ha     1 HEM        0.1986 ****
 15 C1A        -1.361000    1.690000   -0.996000 cc     1 HEM        0.0036 ****
 16 C2A        -2.074000    2.970000   -0.976000 cc     1 HEM       -0.0115 ****
 17 C4A         0.124000    3.216000   -0.456000 cc     1 HEM       -0.0470 ****
 18 NA         -0.049000    1.875000   -0.667000 nc     1 HEM        0.0005 ****
 19 C3A        -1.141000    3.917000   -0.638000 cc     1 HEM        0.0457 ****
 20 CHB         1.340000    3.831000   -0.156000 cg     1 HEM       -0.1428 ****
 21 HHB         1.301000    4.906000   -0.004000 ha     1 HEM        0.1299 ****
 22 C1B         2.607000    3.234000   -0.057000 cd     1 HEM        0.0137 ****
 23 C2B         3.845000    3.949000    0.188000 cd     1 HEM        0.0876 ****
 24 NB          2.853000    1.897000   -0.208000 nd     1 HEM       -0.2469 ****
 25 C4B         4.198000    1.717000   -0.085000 cd     1 HEM        0.0605 ****
 26 CHC         4.851000    0.484000   -0.202000 cg     1 HEM       -0.1605 ****
 27 HHC         5.927000    0.492000   -0.056000 ha     1 HEM        0.1219 ****
 28 FE          1.340000    0.351000   -0.121000 fe     1 HEM        0.2492 ****
 29 C3B         4.854000    2.999000    0.178000 cd     1 HEM       -0.0221 ****
 30 CAB         6.289000    3.172000    0.333000 cc     1 HEM       -0.0823 ****
 31 HAB         6.897000    2.371000   -0.091000 ha     1 HEM        0.0937 ****
 32 CBB         6.953000    4.181000    0.927000 cd     1 HEM       -0.4016 ****
 33 HBB1        6.451000    5.006000    1.422000 ha     1 HEM        0.1396 ****
 34 HBB2        8.040000    4.187000    0.957000 ha     1 HEM        0.1396 ****
 35 CAC         4.292000   -4.371000   -1.325000 cd     1 HEM       -0.0304 ****
 36 HAC         3.401000   -4.989000   -1.208000 ha     1 HEM        0.1082 ****
 37 CBC         5.418000   -5.004000   -1.704000 cc     1 HEM       -0.4401 ****
 38 HBC1        6.353000   -4.485000   -1.892000 ha     1 HEM        0.1429 ****
 39 HBC2        5.422000   -6.080000   -1.861000 ha     1 HEM        0.1429 ****
 40 CMB         3.982000    5.432000    0.356000 c3     1 HEM       -0.1304 ****
 41 HMB1        3.986000    5.734000    1.414000 hc     1 HEM        0.0349 ****
 42 HMB2        4.920000    5.792000   -0.083000 hc     1 HEM        0.0349 ****
 43 HMB3        3.158000    5.969000   -0.126000 hc     1 HEM        0.0349 ****
 44 CMC         6.502000   -2.158000   -0.505000 c3     1 HEM       -0.1062 ****
 45 HMC1        6.729000   -3.145000   -0.084000 hc     1 HEM        0.0363 ****
 46 HMC2        7.064000   -2.077000   -1.448000 hc     1 HEM        0.0363 ****
 47 HMC3        6.907000   -1.403000    0.178000 hc     1 HEM        0.0363 ****
 48 CMD        -0.994000   -4.415000   -2.283000 c3     1 HEM       -0.2143 ****
 49 HMD1       -0.270000   -4.684000   -3.065000 hc     1 HEM        0.0588 ****
 50 HMD2       -0.791000   -5.069000   -1.423000 hc     1 HEM        0.0588 ****
 51 HMD3       -1.992000   -4.666000   -2.655000 hc     1 HEM        0.0588 ****
 52 CMA        -1.343000    5.396000   -0.483000 c3     1 HEM       -0.1497 ****
 53 HMA1       -1.259000    5.713000    0.566000 hc     1 HEM        0.0434 ****
 54 HMA2       -0.597000    5.970000   -1.050000 hc     1 HEM        0.0434 ****
 55 HMA3       -2.334000    5.699000   -0.836000 hc     1 HEM        0.0434 ****
 56 CAA        -3.534000    3.204000   -1.254000 c3     1 HEM       -0.0691 ****
 57 HAA1       -3.665000    4.156000   -1.782000 hc     1 HEM        0.0276 ****
 58 HAA2       -3.927000    2.440000   -1.933000 hc     1 HEM        0.0276 ****
 59 CAD        -3.358000   -2.241000   -2.196000 c3     1 HEM       -0.0642 ****
 60 HAD1       -3.775000   -1.382000   -2.735000 hc     1 HEM        0.0341 ****
 61 HAD2       -3.495000   -3.099000   -2.864000 hc     1 HEM        0.0341 ****
 62 CBA        -4.404000    3.224000    0.022000 c3     1 HEM        0.0116 ****
 63 HBA1       -4.005000    3.947000    0.746000 h1     1 HEM       -0.0101 ****
 64 HBA2       -4.366000    2.248000    0.524000 h1     1 HEM       -0.0101 ****
 65 CBD        -4.189000   -2.459000   -0.913000 c3     1 HEM       -0.0034 ****
 66 HBD1       -4.023000   -1.625000   -0.224000 h1     1 HEM        0.0164 ****
 67 HBD2       -3.843000   -3.361000   -0.388000 h1     1 HEM        0.0164 ****
 68 CGD        -5.700000   -2.589000   -1.145000 c      1 HEM        0.5848 ****
 69 CGA        -5.860000    3.592000   -0.248000 c      1 HEM        0.6582 ****
 70 O1A        -6.643000    3.727000    0.740000 o      1 HEM       -0.6427 *****
 71 O1D        -6.443000   -2.590000   -0.118000 o      1 HEM       -0.5791 *****
 72 O2A        -6.280000    3.786000   -1.418000 o      1 HEM       -0.6427 *****
 73 O2D        -6.151000   -2.718000   -2.311000 o      1 HEM       -0.5791 *****
@<TRIPOS>BOND
    1     1     2 1
    2     1     3 1
    3     1    28 1
    4     2     4 1
    5     2    26 1
    6     3     5 1
    7     3     6 1
    8     4     5 1
    9     4    44 1
   10     5    35 1
   11     6     7 1
   12     6     8 1
   13     8     9 1
   14     8    12 1
   15     9    10 1
   16     9    28 1
   17    10    11 1
   18    10    13 1
   19    11    12 1
   20    11    59 1
   21    12    48 1
   22    13    14 1
   23    13    15 1
   24    15    16 1
   25    15    18 1
   26    16    19 1
   27    16    56 1
   28    17    18 1
   29    17    19 1
   30    17    20 1
   31    18    28 1
   32    19    52 1
   33    20    21 1
   34    20    22 1
   35    22    23 1
   36    22    24 1
   37    23    29 1
   38    23    40 1
   39    24    25 1
   40    24    28 1
   41    25    26 1
   42    25    29 1
   43    26    27 1
   44    29    30 1
   45    30    31 1
   46    30    32 1
   47    32    33 1
   48    32    34 1
   49    35    36 1
   50    35    37 1
   51    37    38 1
   52    37    39 1
   53    40    41 1
   54    40    42 1
   55    40    43 1
   56    44    45 1
   57    44    46 1
   58    44    47 1
   59    48    49 1
   60    48    50 1
   61    48    51 1
   62    52    53 1
   63    52    54 1
   64    52    55 1
   65    56    57 1
   66    56    58 1
   67    56    62 1
   68    59    60 1
   69    59    61 1
   70    59    65 1
   71    62    63 1
   72    62    64 1
   73    62    69 1
   74    65    66 1
   75    65    67 1
   76    65    68 1
   77	 68    71 1
   78	 68    73 1
   79	 69    70 1
   80	 69    72 1
@<TRIPOS>SUBSTRUCTURE
1  HEM             1 ****               0 ****  ****  
