# Shahrokh,K; Orendt,A; Yost, G.S; and Cheatham III, T.E. Jour Comp Chem (2011)
# Dioxygen bound heme coordinates and atomic charges
@<TRIPOS>MOLECULE
HEM-O2
   75    82    1     0     1 
SMALL
USER_CHARGES
@<TRIPOS>ATOM
  1   NC    0.029000    0.030000   -0.006000 nc    1 HEM     0.0085 ****
  2  C1C    0.022000   -0.047000    1.366000 cc    1 HEM    -0.0242 ****
  3  C4C    1.335000    0.041000   -0.389000 cc    1 HEM    -0.0797 ****
  4  C2C    1.369000   -0.102000    1.877000 cc    1 HEM    -0.0048 ****
  5  C3C    2.209000   -0.048000    0.775000 cc    1 HEM    -0.0207 ****
  6  CHD    1.774000    0.099000   -1.710000 cg    1 HEM    -0.0393 ****
  7  HHD    2.844000    0.087000   -1.883000 ha    1 HEM     0.1365 ****
  8  C1D    0.970000    0.115000   -2.841000 cd    1 HEM    -0.6675 ****
  9   ND   -0.401000    0.095000   -2.851000 nd    1 HEM     0.6749 ****
 10  C4D   -0.770000    0.070000   -4.171000 cd    1 HEM    -0.3598 ****
 11  C3D    0.415000    0.027000   -5.041000 cd    1 HEM    -0.0680 ****
 12  C2D    1.490000    0.107000   -4.194000 cd    1 HEM     0.2967 ****
 13  CHA   -2.084000    0.165000   -4.623000 cg    1 HEM    -0.1512 ****
 14  HHA   -2.245000    0.126000   -5.693000 ha    1 HEM     0.1882 ****
 15  C1A   -3.210000    0.323000   -3.817000 cc    1 HEM     0.1108 ****
 16  C2A   -4.567000    0.586000   -4.317000 cc    1 HEM    -0.0389 ****
 17  C4A   -4.492000    0.499000   -2.048000 cc    1 HEM    -0.0887 ****
 18   NA   -3.196000    0.292000   -2.446000 nc    1 HEM     0.0066 ****
 19  C3A   -5.349000    0.704000   -3.196000 cc    1 HEM     0.0866 ****
 20  CHB   -4.946000    0.503000   -0.739000 cg    1 HEM    -0.0639 ****
 21  HHB   -6.014000    0.630000   -0.600000 ha    1 HEM     0.1578 ****
 22  C1B   -4.168000    0.344000    0.405000 cd    1 HEM    -0.5488 ****
 23  C2B   -4.689000    0.328000    1.751000 cd    1 HEM     0.2565 ****
 24   NB   -2.809000    0.195000    0.409000 nd    1 HEM     0.4268 ****
 25  C4B   -2.431000    0.091000    1.715000 cd    1 HEM    -0.3623 ****
 26  CHC   -1.121000   -0.042000    2.163000 cg    1 HEM    -0.0945 ****
 27  HHC   -0.972000   -0.148000    3.232000 ha    1 HEM     0.0889 ****
 28   FE   -1.609000    0.140000   -1.237000 fe    1 HEM     0.0289 ****
 29  C3B   -3.600000    0.158000    2.588000 cd    1 HEM     0.0002 ****
 30  CAB   -3.543000    0.105000    4.037000 cc    1 HEM    -0.0416 ****
 31  HAB   -2.563000    0.319000    4.465000 ha    1 HEM     0.1493 ****
 32  CBB   -4.531000   -0.166000    4.915000 cd    1 HEM    -0.5355 ****
 33 HBB1   -5.537000   -0.434000    4.608000 ha    1 HEM     0.1507 ****
 34 HBB2   -4.338000   -0.150000    5.985000 ha    1 HEM     0.1507 ****
 35  CAC    3.659000   -0.034000    0.713000 cd    1 HEM    -0.0502 ****
 36  HAC    4.072000    0.333000   -0.227000 ha    1 HEM     0.1052 ****
 37  CBC    4.552000   -0.408000    1.652000 cc    1 HEM    -0.4570 ****
 38 HBC1    4.263000   -0.830000    2.609000 ha    1 HEM     0.1339 ****
 39 HBC2    5.620000   -0.324000    1.462000 ha    1 HEM     0.1339 ****
 40  CMB   -6.126000    0.513000    2.135000 c3    1 HEM    -0.0174 ****
 41 HMB1   -6.642000   -0.444000    2.304000 hc    1 HEM    -0.0011 ****
 42 HMB2   -6.211000    1.090000    3.064000 hc    1 HEM    -0.0011 ****
 43 HMB3   -6.684000    1.046000    1.357000 hc    1 HEM    -0.0011 ****
 44  CMC    1.755000   -0.147000    3.325000 c3    1 HEM    -0.0443 ****
 45 HMC1    1.994000   -1.166000    3.666000 hc    1 HEM     0.0131 ****
 46 HMC2    2.646000    0.467000    3.512000 hc    1 HEM     0.0131 ****
 47 HMC3    0.951000    0.228000    3.967000 hc    1 HEM     0.0131 ****
 48  CMD    2.946000    0.166000   -4.554000 c3    1 HEM    -0.1829 ****
 49 HMD1    3.483000    0.897000   -3.933000 hc    1 HEM     0.0423 ****
 50 HMD2    3.449000   -0.803000   -4.423000 hc    1 HEM     0.0423 ****
 51 HMD3    3.076000    0.457000   -5.600000 hc    1 HEM     0.0423 ****
 52  CMA   -6.814000    1.024000   -3.134000 c3    1 HEM    -0.2974 ****
 53 HMA1   -7.430000    0.128000   -2.968000 hc    1 HEM     0.0718 ****
 54 HMA2   -7.039000    1.730000   -2.323000 hc    1 HEM     0.0718 ****
 55 HMA3   -7.150000    1.474000   -4.073000 hc    1 HEM     0.0718 ****
 56  CAA   -5.043000    0.784000   -5.732000 c3    1 HEM    -0.0114 ****
 57 HAA1   -5.536000    1.760000   -5.832000 hc    1 HEM     0.0130 ****
 58 HAA2   -4.195000    0.828000   -6.425000 hc    1 HEM     0.0130 ****
 59  CAD    0.473000   -0.137000   -6.537000 c3    1 HEM    -0.0121 ****
 60 HAD1   -0.536000   -0.121000   -6.962000 hc    1 HEM     0.0377 ****
 61 HAD2    1.013000    0.694000   -7.011000 hc    1 HEM     0.0377 ****
 62  CBA   -6.033000   -0.282000   -6.248000 c3    1 HEM    -0.0190 ****
 63 HBA1   -6.883000   -0.381000   -5.557000 h1    1 HEM    -0.0173 ****
 64 HBA2   -5.551000   -1.268000   -6.270000 h1    1 HEM    -0.0173 ****
 65  CBD    1.163000   -1.453000   -6.967000 c3    1 HEM    -0.0377 ****
 66 HBD1    0.698000   -2.295000   -6.447000 h1    1 HEM    -0.0310 ****
 67 HBD2    2.215000   -1.431000   -6.647000 h1    1 HEM    -0.0310 ****
 68  CGD    1.153000   -1.704000   -8.515000 c     1 HEM     0.6362 ****
 69  CGA   -6.619000    0.025000   -7.683000 c     1 HEM     0.6583 ****
 70  O1A   -7.244000   -0.933000   -8.203000 o     1 HEM    -0.7168 ****
 71  O2A    0.926000   -2.892000   -8.876000 o     1 HEM    -0.7192 ****
 72  O1D   -6.445000    1.196000   -8.113000 o     1 HEM    -0.7168 ****
 73  O2D    1.429000   -0.704000   -9.224000 o     1 HEM    -0.7192 ****
 74   O1   -1.364000    2.042000   -1.212000 oa    1 HEM    -0.1174 ****
 75   O2   -2.372000    2.787000   -0.899000 ob    1 HEM    -0.1946 ****
@<TRIPOS>BOND
    1     1     2 1
    2     1     3 1
    3     1    28 1
    4     2     4 1
    5     2    26 1   
    6     3     5 1
    7     3     6 1
    8     4     5 1
    9     4    44 1
   10     5    35 1
   11     6     7 1
   12     6     8 1
   13     8     9 1
   14     8    12 1
   15     9    10 1
   16     9    28 1
   17    10    11 1
   18    10    13 1
   19    11    12 1
   20    11    59 1
   21    12    48 1
   22    13    14 1
   23    13    15 1
   24    15    16 1
   25    15    18 1
   26    16    19 1
   27    16    56 1
   28    17    18 1
   29    17    19 1
   30    17    20 1
   31    18    28 1
   32    19    52 1
   33    20    21 1
   34    20    22 1
   35    22    23 1
   36    22    24 1
   37    23    29 1
   38    23    40 1
   39    24    25 1
   40    24    28 1
   41    25    26 1
   42    25    29 1
   43    26    27 1
   44    28    74 1
   45    29    30 1
   46    30    31 1
   47    30    32 1
   48    32    33 1
   49    32    34 1
   50    35    36 1
   51    35    37 1
   52    37    38 1
   53    37    39 1
   54    40    41 1
   55    40    42 1
   56    40    43 1
   57    44    45 1
   58    44    46 1
   59    44    47 1
   60    48    49 1
   61    48    50 1
   62    48    51 1
   63    52    53 1
   64    52    54 1
   65    52    55 1
   66    56    57 1
   67    56    58 1
   68    56    62 1
   69    59    60 1
   70    59    61 1
   71    59    65 1
   72    62    63 1
   73    62    64 1
   74    62    69 1
   75    65    66 1
   76    65    67 1
   77    65    68 1
   78    68    71 1
   79    68    73 1
   80    69    70 1
   81    69    72 1
   82    74    75 1
@<TRIPOS>SUBSTRUCTURE
      1  HEM              1 ****               0 ****  ****
